[TITLE]
;;Project Title/Notes

[OPTIONS]
;;Option             Value
FLOW_UNITS           CMS
INFILTRATION         HORTON
FLOW_ROUTING         DYNWAVE
LINK_OFFSETS         DEPTH
MIN_SLOPE            0
ALLOW_PONDING        NO
SKIP_STEADY_STATE    NO

START_DATE           05/15/2023
START_TIME           00:00:00
REPORT_START_DATE    05/15/2023
REPORT_START_TIME    00:00:00
END_DATE             05/16/2023
END_TIME             23:50:00
SWEEP_START          01/01
SWEEP_END            12/31
DRY_DAYS             0
REPORT_STEP          00:01:00
WET_STEP             00:05:00
DRY_STEP             00:05:00
ROUTING_STEP         5
RULE_STEP            00:00:00

INERTIAL_DAMPING     PARTIAL
NORMAL_FLOW_LIMITED  BOTH
FORCE_MAIN_EQUATION  H-W
VARIABLE_STEP        0.75
LENGTHENING_STEP     0
MIN_SURFAREA         0
MAX_TRIALS           8
HEAD_TOLERANCE       0.0015
SYS_FLOW_TOL         5
LAT_FLOW_TOL         5
MINIMUM_STEP         0.5
THREADS              4

[EVAPORATION]
;;Data Source    Parameters
;;-------------- ----------------
CONSTANT         0.0
DRY_ONLY         NO

[RAINGAGES]
;;Name           Format    Interval SCF      Source    
;;-------------- --------- -------- -------- ----------
Huff_(50-400_sq._mi.)_First_quartile_6mm INTENSITY 0:05     1.0      TIMESERIES Huff_(50-400_sq._mi.)_First_quartile_6mm
Hurricane_Hazel_(0-25) INTENSITY 01:00    1.0      TIMESERIES Hurricane_Hazel_(0-25)
SCS_Type_I_10mm  INTENSITY 0:06     1.0      TIMESERIES SCS_Type_I_10mm 

[SUBCATCHMENTS]
;;Name           Rain Gage        Outlet           Area     %Imperv  Width    %Slope   CurbLen  SnowPack        
;;-------------- ---------------- ---------------- -------- -------- -------- -------- -------- ----------------
S1               Huff_(50-400_sq._mi.)_First_quartile_6mm J1 800 25  2000     0.5      0                        
S2               Huff_(50-400_sq._mi.)_First_quartile_6mm J2 700 25  1166.667 0.5      0                        
S3               Huff_(50-400_sq._mi.)_First_quartile_6mm J3 300 25  1000     0.5      0                        

[SUBAREAS]
;;Subcatchment   N-Imperv   N-Perv     S-Imperv   S-Perv     PctZero    RouteTo    PctRouted 
;;-------------- ---------- ---------- ---------- ---------- ---------- ---------- ----------
S1               0.01       0.1        0.05       0.05       25         OUTLET    
S2               0.01       0.1        0.05       0.05       25         OUTLET    
S3               0.01       0.1        0.05       0.05       25         OUTLET    

[INFILTRATION]
;;Subcatchment   Param1     Param2     Param3     Param4     Param5    
;;-------------- ---------- ---------- ---------- ---------- ----------
S1               3          0.5        4          7          0         
S2               3          0.5        4          7          0         
S3               3          0.5        4          7          0         

[JUNCTIONS]
;;Name           Elevation  MaxDepth   InitDepth  SurDepth   Aponded   
;;-------------- ---------- ---------- ---------- ---------- ----------
J1               10.8       0          0          0          0         
J2               6          0          0          0          0         
J3               2          0          0          0          0         
SU               0          1          0          0          0         

[OUTFALLS]
;;Name           Elevation  Type       Stage Data       Gated    Route To        
;;-------------- ---------- ---------- ---------------- -------- ----------------
OF1              0          FREE                        NO                       

[CONDUITS]
;;Name           From Node        To Node          Length     Roughness  InOffset   OutOffset  InitFlow   MaxFlow   
;;-------------- ---------------- ---------------- ---------- ---------- ---------- ---------- ---------- ----------
C1               J1               J2               300        0.013      0          0          0          0         
C2               J2               J3               500        0.013      0          0          0          0         
C3               J3               SU               800        0.013      0          0          0          0         

[ORIFICES]
;;Name           From Node        To Node          Type         Offset     Qcoeff     Gated    CloseTime 
;;-------------- ---------------- ---------------- ------------ ---------- ---------- -------- ----------
OR               SU               OF1              SIDE         0          0.65       NO       0         

[XSECTIONS]
;;Link           Shape        Geom1            Geom2      Geom3      Geom4      Barrels    Culvert   
;;-------------- ------------ ---------------- ---------- ---------- ---------- ---------- ----------
C1               CIRCULAR     1                0          0          0          1                    
C2               CIRCULAR     1.5              0          0          0          1                    
C3               CIRCULAR     2                0          0          0          1                    
OR               RECT_CLOSED  0.5              0.5        0          0

[LOSSES]
;;Link           Kentry     Kexit      Kavg       Flap Gate  Seepage   
;;-------------- ---------- ---------- ---------- ---------- ----------

[TIMESERIES]
;;Name           Date       Time       Value     
;;-------------- ---------- ---------- ----------
;Rainfall (mm/hr)
Huff_(50-400_sq._mi.)_First_quartile_6mm 05/15/2023 00:00:00   0.4       
Huff_(50-400_sq._mi.)_First_quartile_6mm 05/15/2023 00:05:00   0.4       
Huff_(50-400_sq._mi.)_First_quartile_6mm 05/15/2023 00:10:00   0.4       
Huff_(50-400_sq._mi.)_First_quartile_6mm 05/15/2023 00:15:00   0.4       
Huff_(50-400_sq._mi.)_First_quartile_6mm 05/15/2023 00:20:00   0.4       
Huff_(50-400_sq._mi.)_First_quartile_6mm 05/15/2023 00:25:00   0.4       
Huff_(50-400_sq._mi.)_First_quartile_6mm 05/15/2023 00:30:00   0.4       
Huff_(50-400_sq._mi.)_First_quartile_6mm 05/15/2023 00:35:00   0.4       
Huff_(50-400_sq._mi.)_First_quartile_6mm 05/15/2023 00:40:00   0.4       
Huff_(50-400_sq._mi.)_First_quartile_6mm 05/15/2023 00:45:00   0.4       
Huff_(50-400_sq._mi.)_First_quartile_6mm 05/15/2023 00:50:00   0.4       
Huff_(50-400_sq._mi.)_First_quartile_6mm 05/15/2023 00:55:00   0.4       
Huff_(50-400_sq._mi.)_First_quartile_6mm 05/15/2023 01:00:00   0.4       
Huff_(50-400_sq._mi.)_First_quartile_6mm 05/15/2023 01:05:00   0.4       
Huff_(50-400_sq._mi.)_First_quartile_6mm 05/15/2023 01:10:00   0.43      
Huff_(50-400_sq._mi.)_First_quartile_6mm 05/15/2023 01:15:00   0.45      
Huff_(50-400_sq._mi.)_First_quartile_6mm 05/15/2023 01:20:00   0.45      
Huff_(50-400_sq._mi.)_First_quartile_6mm 05/15/2023 01:25:00   0.45      
Huff_(50-400_sq._mi.)_First_quartile_6mm 05/15/2023 01:30:00   0.45      
Huff_(50-400_sq._mi.)_First_quartile_6mm 05/15/2023 01:35:00   0.45      
Huff_(50-400_sq._mi.)_First_quartile_6mm 05/15/2023 01:40:00   0.45      
Huff_(50-400_sq._mi.)_First_quartile_6mm 05/15/2023 01:45:00   0.45      
Huff_(50-400_sq._mi.)_First_quartile_6mm 05/15/2023 01:50:00   0.45      
Huff_(50-400_sq._mi.)_First_quartile_6mm 05/15/2023 01:55:00   0.45      
Huff_(50-400_sq._mi.)_First_quartile_6mm 05/15/2023 02:00:00   0.45      
Huff_(50-400_sq._mi.)_First_quartile_6mm 05/15/2023 02:05:00   0.45      
Huff_(50-400_sq._mi.)_First_quartile_6mm 05/15/2023 02:10:00   0.45      
Huff_(50-400_sq._mi.)_First_quartile_6mm 05/15/2023 02:15:00   0.45      
Huff_(50-400_sq._mi.)_First_quartile_6mm 05/15/2023 02:20:00   0.53      
Huff_(50-400_sq._mi.)_First_quartile_6mm 05/15/2023 02:25:00   0.85      
Huff_(50-400_sq._mi.)_First_quartile_6mm 05/15/2023 02:30:00   0.85      
Huff_(50-400_sq._mi.)_First_quartile_6mm 05/15/2023 02:35:00   0.85      
Huff_(50-400_sq._mi.)_First_quartile_6mm 05/15/2023 02:40:00   0.85      
Huff_(50-400_sq._mi.)_First_quartile_6mm 05/15/2023 02:45:00   0.85      
Huff_(50-400_sq._mi.)_First_quartile_6mm 05/15/2023 02:50:00   0.85      
Huff_(50-400_sq._mi.)_First_quartile_6mm 05/15/2023 02:55:00   0.85      
Huff_(50-400_sq._mi.)_First_quartile_6mm 05/15/2023 03:00:00   0.85      
Huff_(50-400_sq._mi.)_First_quartile_6mm 05/15/2023 03:05:00   0.85      
Huff_(50-400_sq._mi.)_First_quartile_6mm 05/15/2023 03:10:00   0.85      
Huff_(50-400_sq._mi.)_First_quartile_6mm 05/15/2023 03:15:00   0.85      
Huff_(50-400_sq._mi.)_First_quartile_6mm 05/15/2023 03:20:00   0.85      
Huff_(50-400_sq._mi.)_First_quartile_6mm 05/15/2023 03:25:00   0.85      
Huff_(50-400_sq._mi.)_First_quartile_6mm 05/15/2023 03:30:00   0.85      
Huff_(50-400_sq._mi.)_First_quartile_6mm 05/15/2023 03:35:00   0.81      
Huff_(50-400_sq._mi.)_First_quartile_6mm 05/15/2023 03:40:00   0.8       
Huff_(50-400_sq._mi.)_First_quartile_6mm 05/15/2023 03:45:00   0.8       
Huff_(50-400_sq._mi.)_First_quartile_6mm 05/15/2023 03:50:00   0.8       
Huff_(50-400_sq._mi.)_First_quartile_6mm 05/15/2023 03:55:00   0.8       
Huff_(50-400_sq._mi.)_First_quartile_6mm 05/15/2023 04:00:00   0.8       
Huff_(50-400_sq._mi.)_First_quartile_6mm 05/15/2023 04:05:00   0.8       
Huff_(50-400_sq._mi.)_First_quartile_6mm 05/15/2023 04:10:00   0.8       
Huff_(50-400_sq._mi.)_First_quartile_6mm 05/15/2023 04:15:00   0.8       
Huff_(50-400_sq._mi.)_First_quartile_6mm 05/15/2023 04:20:00   0.8       
Huff_(50-400_sq._mi.)_First_quartile_6mm 05/15/2023 04:25:00   0.8       
Huff_(50-400_sq._mi.)_First_quartile_6mm 05/15/2023 04:30:00   0.8       
Huff_(50-400_sq._mi.)_First_quartile_6mm 05/15/2023 04:35:00   0.8       
Huff_(50-400_sq._mi.)_First_quartile_6mm 05/15/2023 04:40:00   0.8       
Huff_(50-400_sq._mi.)_First_quartile_6mm 05/15/2023 04:45:00   0.74      
Huff_(50-400_sq._mi.)_First_quartile_6mm 05/15/2023 04:50:00   0.65      
Huff_(50-400_sq._mi.)_First_quartile_6mm 05/15/2023 04:55:00   0.65      
Huff_(50-400_sq._mi.)_First_quartile_6mm 05/15/2023 05:00:00   0.65      
Huff_(50-400_sq._mi.)_First_quartile_6mm 05/15/2023 05:05:00   0.65      
Huff_(50-400_sq._mi.)_First_quartile_6mm 05/15/2023 05:10:00   0.65      
Huff_(50-400_sq._mi.)_First_quartile_6mm 05/15/2023 05:15:00   0.65      
Huff_(50-400_sq._mi.)_First_quartile_6mm 05/15/2023 05:20:00   0.65      
Huff_(50-400_sq._mi.)_First_quartile_6mm 05/15/2023 05:25:00   0.65      
Huff_(50-400_sq._mi.)_First_quartile_6mm 05/15/2023 05:30:00   0.65      
Huff_(50-400_sq._mi.)_First_quartile_6mm 05/15/2023 05:35:00   0.65      
Huff_(50-400_sq._mi.)_First_quartile_6mm 05/15/2023 05:40:00   0.65      
Huff_(50-400_sq._mi.)_First_quartile_6mm 05/15/2023 05:45:00   0.65      
Huff_(50-400_sq._mi.)_First_quartile_6mm 05/15/2023 05:50:00   0.65      
Huff_(50-400_sq._mi.)_First_quartile_6mm 05/15/2023 05:55:00   0.65      
Huff_(50-400_sq._mi.)_First_quartile_6mm 05/15/2023 06:00:00   0.4       
Huff_(50-400_sq._mi.)_First_quartile_6mm 05/15/2023 06:05:00   0.4       
Huff_(50-400_sq._mi.)_First_quartile_6mm 05/15/2023 06:10:00   0.4       
Huff_(50-400_sq._mi.)_First_quartile_6mm 05/15/2023 06:15:00   0.4       
Huff_(50-400_sq._mi.)_First_quartile_6mm 05/15/2023 06:20:00   0.4       
Huff_(50-400_sq._mi.)_First_quartile_6mm 05/15/2023 06:25:00   0.4       
Huff_(50-400_sq._mi.)_First_quartile_6mm 05/15/2023 06:30:00   0.4       
Huff_(50-400_sq._mi.)_First_quartile_6mm 05/15/2023 06:35:00   0.4       
Huff_(50-400_sq._mi.)_First_quartile_6mm 05/15/2023 06:40:00   0.4       
Huff_(50-400_sq._mi.)_First_quartile_6mm 05/15/2023 06:45:00   0.4       
Huff_(50-400_sq._mi.)_First_quartile_6mm 05/15/2023 06:50:00   0.4       
Huff_(50-400_sq._mi.)_First_quartile_6mm 05/15/2023 06:55:00   0.4       
Huff_(50-400_sq._mi.)_First_quartile_6mm 05/15/2023 07:00:00   0.4       
Huff_(50-400_sq._mi.)_First_quartile_6mm 05/15/2023 07:05:00   0.4       
Huff_(50-400_sq._mi.)_First_quartile_6mm 05/15/2023 07:10:00   0.31      
Huff_(50-400_sq._mi.)_First_quartile_6mm 05/15/2023 07:15:00   0.25      
Huff_(50-400_sq._mi.)_First_quartile_6mm 05/15/2023 07:20:00   0.25      
Huff_(50-400_sq._mi.)_First_quartile_6mm 05/15/2023 07:25:00   0.25      
Huff_(50-400_sq._mi.)_First_quartile_6mm 05/15/2023 07:30:00   0.25      
Huff_(50-400_sq._mi.)_First_quartile_6mm 05/15/2023 07:35:00   0.25      
Huff_(50-400_sq._mi.)_First_quartile_6mm 05/15/2023 07:40:00   0.25      
Huff_(50-400_sq._mi.)_First_quartile_6mm 05/15/2023 07:45:00   0.25      
Huff_(50-400_sq._mi.)_First_quartile_6mm 05/15/2023 07:50:00   0.25      
Huff_(50-400_sq._mi.)_First_quartile_6mm 05/15/2023 07:55:00   0.25      
Huff_(50-400_sq._mi.)_First_quartile_6mm 05/15/2023 08:00:00   0.25      
Huff_(50-400_sq._mi.)_First_quartile_6mm 05/15/2023 08:05:00   0.25      
Huff_(50-400_sq._mi.)_First_quartile_6mm 05/15/2023 08:10:00   0.25      
Huff_(50-400_sq._mi.)_First_quartile_6mm 05/15/2023 08:15:00   0.25      
Huff_(50-400_sq._mi.)_First_quartile_6mm 05/15/2023 08:20:00   0.24      
Huff_(50-400_sq._mi.)_First_quartile_6mm 05/15/2023 08:25:00   0.2       
Huff_(50-400_sq._mi.)_First_quartile_6mm 05/15/2023 08:30:00   0.2       
Huff_(50-400_sq._mi.)_First_quartile_6mm 05/15/2023 08:35:00   0.2       
Huff_(50-400_sq._mi.)_First_quartile_6mm 05/15/2023 08:40:00   0.2       
Huff_(50-400_sq._mi.)_First_quartile_6mm 05/15/2023 08:45:00   0.2       
Huff_(50-400_sq._mi.)_First_quartile_6mm 05/15/2023 08:50:00   0.2       
Huff_(50-400_sq._mi.)_First_quartile_6mm 05/15/2023 08:55:00   0.2       
Huff_(50-400_sq._mi.)_First_quartile_6mm 05/15/2023 09:00:00   0.2       
Huff_(50-400_sq._mi.)_First_quartile_6mm 05/15/2023 09:05:00   0.2       
Huff_(50-400_sq._mi.)_First_quartile_6mm 05/15/2023 09:10:00   0.2       
Huff_(50-400_sq._mi.)_First_quartile_6mm 05/15/2023 09:15:00   0.2       
Huff_(50-400_sq._mi.)_First_quartile_6mm 05/15/2023 09:20:00   0.2       
Huff_(50-400_sq._mi.)_First_quartile_6mm 05/15/2023 09:25:00   0.2       
Huff_(50-400_sq._mi.)_First_quartile_6mm 05/15/2023 09:30:00   0.2       
Huff_(50-400_sq._mi.)_First_quartile_6mm 05/15/2023 09:35:00   0.16      
Huff_(50-400_sq._mi.)_First_quartile_6mm 05/15/2023 09:40:00   0.15      
Huff_(50-400_sq._mi.)_First_quartile_6mm 05/15/2023 09:45:00   0.15      
Huff_(50-400_sq._mi.)_First_quartile_6mm 05/15/2023 09:50:00   0.15      
Huff_(50-400_sq._mi.)_First_quartile_6mm 05/15/2023 09:55:00   0.15      
Huff_(50-400_sq._mi.)_First_quartile_6mm 05/15/2023 10:00:00   0.15      
Huff_(50-400_sq._mi.)_First_quartile_6mm 05/15/2023 10:05:00   0.15      
Huff_(50-400_sq._mi.)_First_quartile_6mm 05/15/2023 10:10:00   0.15      
Huff_(50-400_sq._mi.)_First_quartile_6mm 05/15/2023 10:15:00   0.15      
Huff_(50-400_sq._mi.)_First_quartile_6mm 05/15/2023 10:20:00   0.15      
Huff_(50-400_sq._mi.)_First_quartile_6mm 05/15/2023 10:25:00   0.15      
Huff_(50-400_sq._mi.)_First_quartile_6mm 05/15/2023 10:30:00   0.15      
Huff_(50-400_sq._mi.)_First_quartile_6mm 05/15/2023 10:35:00   0.15      
Huff_(50-400_sq._mi.)_First_quartile_6mm 05/15/2023 10:40:00   0.15      
Huff_(50-400_sq._mi.)_First_quartile_6mm 05/15/2023 10:45:00   0.15      
Huff_(50-400_sq._mi.)_First_quartile_6mm 05/15/2023 10:50:00   0.15      
Huff_(50-400_sq._mi.)_First_quartile_6mm 05/15/2023 10:55:00   0.15      
Huff_(50-400_sq._mi.)_First_quartile_6mm 05/15/2023 11:00:00   0.15      
Huff_(50-400_sq._mi.)_First_quartile_6mm 05/15/2023 11:05:00   0.15      
Huff_(50-400_sq._mi.)_First_quartile_6mm 05/15/2023 11:10:00   0.15      
Huff_(50-400_sq._mi.)_First_quartile_6mm 05/15/2023 11:15:00   0.15      
Huff_(50-400_sq._mi.)_First_quartile_6mm 05/15/2023 11:20:00   0.15      
Huff_(50-400_sq._mi.)_First_quartile_6mm 05/15/2023 11:25:00   0.15      
Huff_(50-400_sq._mi.)_First_quartile_6mm 05/15/2023 11:30:00   0.15      
Huff_(50-400_sq._mi.)_First_quartile_6mm 05/15/2023 11:35:00   0.15      
Huff_(50-400_sq._mi.)_First_quartile_6mm 05/15/2023 11:40:00   0.15      
Huff_(50-400_sq._mi.)_First_quartile_6mm 05/15/2023 11:45:00   0.15      
Huff_(50-400_sq._mi.)_First_quartile_6mm 05/15/2023 11:50:00   0.15      
Huff_(50-400_sq._mi.)_First_quartile_6mm 05/15/2023 11:55:00   0.15      
Huff_(50-400_sq._mi.)_First_quartile_6mm 05/15/2023 12:00:00   0.1       
Huff_(50-400_sq._mi.)_First_quartile_6mm 05/15/2023 12:05:00   0.1       
Huff_(50-400_sq._mi.)_First_quartile_6mm 05/15/2023 12:10:00   0.1       
Huff_(50-400_sq._mi.)_First_quartile_6mm 05/15/2023 12:15:00   0.1       
Huff_(50-400_sq._mi.)_First_quartile_6mm 05/15/2023 12:20:00   0.1       
Huff_(50-400_sq._mi.)_First_quartile_6mm 05/15/2023 12:25:00   0.1       
Huff_(50-400_sq._mi.)_First_quartile_6mm 05/15/2023 12:30:00   0.1       
Huff_(50-400_sq._mi.)_First_quartile_6mm 05/15/2023 12:35:00   0.1       
Huff_(50-400_sq._mi.)_First_quartile_6mm 05/15/2023 12:40:00   0.1       
Huff_(50-400_sq._mi.)_First_quartile_6mm 05/15/2023 12:45:00   0.1       
Huff_(50-400_sq._mi.)_First_quartile_6mm 05/15/2023 12:50:00   0.1       
Huff_(50-400_sq._mi.)_First_quartile_6mm 05/15/2023 12:55:00   0.1       
Huff_(50-400_sq._mi.)_First_quartile_6mm 05/15/2023 13:00:00   0.1       
Huff_(50-400_sq._mi.)_First_quartile_6mm 05/15/2023 13:05:00   0.1       
Huff_(50-400_sq._mi.)_First_quartile_6mm 05/15/2023 13:10:00   0.1       
Huff_(50-400_sq._mi.)_First_quartile_6mm 05/15/2023 13:15:00   0.1       
Huff_(50-400_sq._mi.)_First_quartile_6mm 05/15/2023 13:20:00   0.1       
Huff_(50-400_sq._mi.)_First_quartile_6mm 05/15/2023 13:25:00   0.1       
Huff_(50-400_sq._mi.)_First_quartile_6mm 05/15/2023 13:30:00   0.1       
Huff_(50-400_sq._mi.)_First_quartile_6mm 05/15/2023 13:35:00   0.1       
Huff_(50-400_sq._mi.)_First_quartile_6mm 05/15/2023 13:40:00   0.1       
Huff_(50-400_sq._mi.)_First_quartile_6mm 05/15/2023 13:45:00   0.1       
Huff_(50-400_sq._mi.)_First_quartile_6mm 05/15/2023 13:50:00   0.1       
Huff_(50-400_sq._mi.)_First_quartile_6mm 05/15/2023 13:55:00   0.1       
Huff_(50-400_sq._mi.)_First_quartile_6mm 05/15/2023 14:00:00   0.1       
Huff_(50-400_sq._mi.)_First_quartile_6mm 05/15/2023 14:05:00   0.1       
Huff_(50-400_sq._mi.)_First_quartile_6mm 05/15/2023 14:10:00   0.1       
Huff_(50-400_sq._mi.)_First_quartile_6mm 05/15/2023 14:15:00   0.1       
Huff_(50-400_sq._mi.)_First_quartile_6mm 05/15/2023 14:20:00   0.1       
Huff_(50-400_sq._mi.)_First_quartile_6mm 05/15/2023 14:25:00   0.1       
Huff_(50-400_sq._mi.)_First_quartile_6mm 05/15/2023 14:30:00   0.1       
Huff_(50-400_sq._mi.)_First_quartile_6mm 05/15/2023 14:35:00   0.1       
Huff_(50-400_sq._mi.)_First_quartile_6mm 05/15/2023 14:40:00   0.1       
Huff_(50-400_sq._mi.)_First_quartile_6mm 05/15/2023 14:45:00   0.1       
Huff_(50-400_sq._mi.)_First_quartile_6mm 05/15/2023 14:50:00   0.1       
Huff_(50-400_sq._mi.)_First_quartile_6mm 05/15/2023 14:55:00   0.1       
Huff_(50-400_sq._mi.)_First_quartile_6mm 05/15/2023 15:00:00   0.1       
Huff_(50-400_sq._mi.)_First_quartile_6mm 05/15/2023 15:05:00   0.1       
Huff_(50-400_sq._mi.)_First_quartile_6mm 05/15/2023 15:10:00   0.1       
Huff_(50-400_sq._mi.)_First_quartile_6mm 05/15/2023 15:15:00   0.1       
Huff_(50-400_sq._mi.)_First_quartile_6mm 05/15/2023 15:20:00   0.1       
Huff_(50-400_sq._mi.)_First_quartile_6mm 05/15/2023 15:25:00   0.1       
Huff_(50-400_sq._mi.)_First_quartile_6mm 05/15/2023 15:30:00   0.1       
Huff_(50-400_sq._mi.)_First_quartile_6mm 05/15/2023 15:35:00   0.06      
Huff_(50-400_sq._mi.)_First_quartile_6mm 05/15/2023 15:40:00   0.05      
Huff_(50-400_sq._mi.)_First_quartile_6mm 05/15/2023 15:45:00   0.05      
Huff_(50-400_sq._mi.)_First_quartile_6mm 05/15/2023 15:50:00   0.05      
Huff_(50-400_sq._mi.)_First_quartile_6mm 05/15/2023 15:55:00   0.05      
Huff_(50-400_sq._mi.)_First_quartile_6mm 05/15/2023 16:00:00   0.05      
Huff_(50-400_sq._mi.)_First_quartile_6mm 05/15/2023 16:05:00   0.05      
Huff_(50-400_sq._mi.)_First_quartile_6mm 05/15/2023 16:10:00   0.05      
Huff_(50-400_sq._mi.)_First_quartile_6mm 05/15/2023 16:15:00   0.05      
Huff_(50-400_sq._mi.)_First_quartile_6mm 05/15/2023 16:20:00   0.05      
Huff_(50-400_sq._mi.)_First_quartile_6mm 05/15/2023 16:25:00   0.05      
Huff_(50-400_sq._mi.)_First_quartile_6mm 05/15/2023 16:30:00   0.05      
Huff_(50-400_sq._mi.)_First_quartile_6mm 05/15/2023 16:35:00   0.05      
Huff_(50-400_sq._mi.)_First_quartile_6mm 05/15/2023 16:40:00   0.05      
Huff_(50-400_sq._mi.)_First_quartile_6mm 05/15/2023 16:45:00   0.07      
Huff_(50-400_sq._mi.)_First_quartile_6mm 05/15/2023 16:50:00   0.1       
Huff_(50-400_sq._mi.)_First_quartile_6mm 05/15/2023 16:55:00   0.1       
Huff_(50-400_sq._mi.)_First_quartile_6mm 05/15/2023 17:00:00   0.1       
Huff_(50-400_sq._mi.)_First_quartile_6mm 05/15/2023 17:05:00   0.1       
Huff_(50-400_sq._mi.)_First_quartile_6mm 05/15/2023 17:10:00   0.1       
Huff_(50-400_sq._mi.)_First_quartile_6mm 05/15/2023 17:15:00   0.1       
Huff_(50-400_sq._mi.)_First_quartile_6mm 05/15/2023 17:20:00   0.1       
Huff_(50-400_sq._mi.)_First_quartile_6mm 05/15/2023 17:25:00   0.1       
Huff_(50-400_sq._mi.)_First_quartile_6mm 05/15/2023 17:30:00   0.1       
Huff_(50-400_sq._mi.)_First_quartile_6mm 05/15/2023 17:35:00   0.1       
Huff_(50-400_sq._mi.)_First_quartile_6mm 05/15/2023 17:40:00   0.1       
Huff_(50-400_sq._mi.)_First_quartile_6mm 05/15/2023 17:45:00   0.1       
Huff_(50-400_sq._mi.)_First_quartile_6mm 05/15/2023 17:50:00   0.1       
Huff_(50-400_sq._mi.)_First_quartile_6mm 05/15/2023 17:55:00   0.1       
Huff_(50-400_sq._mi.)_First_quartile_6mm 05/15/2023 18:00:00   0.05      
Huff_(50-400_sq._mi.)_First_quartile_6mm 05/15/2023 18:05:00   0.05      
Huff_(50-400_sq._mi.)_First_quartile_6mm 05/15/2023 18:10:00   0.05      
Huff_(50-400_sq._mi.)_First_quartile_6mm 05/15/2023 18:15:00   0.05      
Huff_(50-400_sq._mi.)_First_quartile_6mm 05/15/2023 18:20:00   0.05      
Huff_(50-400_sq._mi.)_First_quartile_6mm 05/15/2023 18:25:00   0.05      
Huff_(50-400_sq._mi.)_First_quartile_6mm 05/15/2023 18:30:00   0.05      
Huff_(50-400_sq._mi.)_First_quartile_6mm 05/15/2023 18:35:00   0.05      
Huff_(50-400_sq._mi.)_First_quartile_6mm 05/15/2023 18:40:00   0.05      
Huff_(50-400_sq._mi.)_First_quartile_6mm 05/15/2023 18:45:00   0.05      
Huff_(50-400_sq._mi.)_First_quartile_6mm 05/15/2023 18:50:00   0.05      
Huff_(50-400_sq._mi.)_First_quartile_6mm 05/15/2023 18:55:00   0.05      
Huff_(50-400_sq._mi.)_First_quartile_6mm 05/15/2023 19:00:00   0.05      
Huff_(50-400_sq._mi.)_First_quartile_6mm 05/15/2023 19:05:00   0.05      
Huff_(50-400_sq._mi.)_First_quartile_6mm 05/15/2023 19:10:00   0.05      
Huff_(50-400_sq._mi.)_First_quartile_6mm 05/15/2023 19:15:00   0.05      
Huff_(50-400_sq._mi.)_First_quartile_6mm 05/15/2023 19:20:00   0.05      
Huff_(50-400_sq._mi.)_First_quartile_6mm 05/15/2023 19:25:00   0.05      
Huff_(50-400_sq._mi.)_First_quartile_6mm 05/15/2023 19:30:00   0.05      
Huff_(50-400_sq._mi.)_First_quartile_6mm 05/15/2023 19:35:00   0.05      
Huff_(50-400_sq._mi.)_First_quartile_6mm 05/15/2023 19:40:00   0.05      
Huff_(50-400_sq._mi.)_First_quartile_6mm 05/15/2023 19:45:00   0.05      
Huff_(50-400_sq._mi.)_First_quartile_6mm 05/15/2023 19:50:00   0.05      
Huff_(50-400_sq._mi.)_First_quartile_6mm 05/15/2023 19:55:00   0.05      
Huff_(50-400_sq._mi.)_First_quartile_6mm 05/15/2023 20:00:00   0.05      
Huff_(50-400_sq._mi.)_First_quartile_6mm 05/15/2023 20:05:00   0.05      
Huff_(50-400_sq._mi.)_First_quartile_6mm 05/15/2023 20:10:00   0.05      
Huff_(50-400_sq._mi.)_First_quartile_6mm 05/15/2023 20:15:00   0.05      
Huff_(50-400_sq._mi.)_First_quartile_6mm 05/15/2023 20:20:00   0.05      
Huff_(50-400_sq._mi.)_First_quartile_6mm 05/15/2023 20:25:00   0.05      
Huff_(50-400_sq._mi.)_First_quartile_6mm 05/15/2023 20:30:00   0.05      
Huff_(50-400_sq._mi.)_First_quartile_6mm 05/15/2023 20:35:00   0.05      
Huff_(50-400_sq._mi.)_First_quartile_6mm 05/15/2023 20:40:00   0.05      
Huff_(50-400_sq._mi.)_First_quartile_6mm 05/15/2023 20:45:00   0.05      
Huff_(50-400_sq._mi.)_First_quartile_6mm 05/15/2023 20:50:00   0.05      
Huff_(50-400_sq._mi.)_First_quartile_6mm 05/15/2023 20:55:00   0.05      
Huff_(50-400_sq._mi.)_First_quartile_6mm 05/15/2023 21:00:00   0.05      
Huff_(50-400_sq._mi.)_First_quartile_6mm 05/15/2023 21:05:00   0.05      
Huff_(50-400_sq._mi.)_First_quartile_6mm 05/15/2023 21:10:00   0.05      
Huff_(50-400_sq._mi.)_First_quartile_6mm 05/15/2023 21:15:00   0.05      
Huff_(50-400_sq._mi.)_First_quartile_6mm 05/15/2023 21:20:00   0.05      
Huff_(50-400_sq._mi.)_First_quartile_6mm 05/15/2023 21:25:00   0.05      
Huff_(50-400_sq._mi.)_First_quartile_6mm 05/15/2023 21:30:00   0.05      
Huff_(50-400_sq._mi.)_First_quartile_6mm 05/15/2023 21:35:00   0.05      
Huff_(50-400_sq._mi.)_First_quartile_6mm 05/15/2023 21:40:00   0.05      
Huff_(50-400_sq._mi.)_First_quartile_6mm 05/15/2023 21:45:00   0.05      
Huff_(50-400_sq._mi.)_First_quartile_6mm 05/15/2023 21:50:00   0.05      
Huff_(50-400_sq._mi.)_First_quartile_6mm 05/15/2023 21:55:00   0.05      
Huff_(50-400_sq._mi.)_First_quartile_6mm 05/15/2023 22:00:00   0.05      
Huff_(50-400_sq._mi.)_First_quartile_6mm 05/15/2023 22:05:00   0.05      
Huff_(50-400_sq._mi.)_First_quartile_6mm 05/15/2023 22:10:00   0.05      
Huff_(50-400_sq._mi.)_First_quartile_6mm 05/15/2023 22:15:00   0.05      
Huff_(50-400_sq._mi.)_First_quartile_6mm 05/15/2023 22:20:00   0.05      
Huff_(50-400_sq._mi.)_First_quartile_6mm 05/15/2023 22:25:00   0.05      
Huff_(50-400_sq._mi.)_First_quartile_6mm 05/15/2023 22:30:00   0.05      
Huff_(50-400_sq._mi.)_First_quartile_6mm 05/15/2023 22:35:00   0.05      
Huff_(50-400_sq._mi.)_First_quartile_6mm 05/15/2023 22:40:00   0.05      
Huff_(50-400_sq._mi.)_First_quartile_6mm 05/15/2023 22:45:00   0.05      
Huff_(50-400_sq._mi.)_First_quartile_6mm 05/15/2023 22:50:00   0.05      
Huff_(50-400_sq._mi.)_First_quartile_6mm 05/15/2023 22:55:00   0.05      
Huff_(50-400_sq._mi.)_First_quartile_6mm 05/15/2023 23:00:00   0.05      
Huff_(50-400_sq._mi.)_First_quartile_6mm 05/15/2023 23:05:00   0.05      
Huff_(50-400_sq._mi.)_First_quartile_6mm 05/15/2023 23:10:00   0.05      
Huff_(50-400_sq._mi.)_First_quartile_6mm 05/15/2023 23:15:00   0.05      
Huff_(50-400_sq._mi.)_First_quartile_6mm 05/15/2023 23:20:00   0.05      
Huff_(50-400_sq._mi.)_First_quartile_6mm 05/15/2023 23:25:00   0.05      
Huff_(50-400_sq._mi.)_First_quartile_6mm 05/15/2023 23:30:00   0.05      
Huff_(50-400_sq._mi.)_First_quartile_6mm 05/15/2023 23:35:00   0.05      
Huff_(50-400_sq._mi.)_First_quartile_6mm 05/15/2023 23:40:00   0.05      
Huff_(50-400_sq._mi.)_First_quartile_6mm 05/15/2023 23:45:00   0.05      
Huff_(50-400_sq._mi.)_First_quartile_6mm 05/15/2023 23:50:00   0.05      
Huff_(50-400_sq._mi.)_First_quartile_6mm 05/15/2023 23:55:00   0.05      

;Rainfall (mm/hr)
Hurricane_Hazel_(0-25) 05/15/2023 00:00:00   6.33      
Hurricane_Hazel_(0-25) 05/15/2023 01:00:00   4.22      
Hurricane_Hazel_(0-25) 05/15/2023 02:00:00   6.33      
Hurricane_Hazel_(0-25) 05/15/2023 03:00:00   12.66     
Hurricane_Hazel_(0-25) 05/15/2023 04:00:00   16.88     
Hurricane_Hazel_(0-25) 05/15/2023 05:00:00   12.66     
Hurricane_Hazel_(0-25) 05/15/2023 06:00:00   23.21     
Hurricane_Hazel_(0-25) 05/15/2023 07:00:00   12.66     
Hurricane_Hazel_(0-25) 05/15/2023 08:00:00   12.66     
Hurricane_Hazel_(0-25) 05/15/2023 09:00:00   52.75     
Hurricane_Hazel_(0-25) 05/15/2023 10:00:00   37.98     
Hurricane_Hazel_(0-25) 05/15/2023 11:00:00   12.66     

;Rainfall (mm/hr)
SCS_Type_I_10mm  05/15/2023 00:00:00   0.174     
SCS_Type_I_10mm  05/15/2023 00:06:00   0.174     
SCS_Type_I_10mm  05/15/2023 00:12:00   0.174     
SCS_Type_I_10mm  05/15/2023 00:18:00   0.175     
SCS_Type_I_10mm  05/15/2023 00:24:00   0.174     
SCS_Type_I_10mm  05/15/2023 00:30:00   0.175     
SCS_Type_I_10mm  05/15/2023 00:36:00   0.174     
SCS_Type_I_10mm  05/15/2023 00:42:00   0.175     
SCS_Type_I_10mm  05/15/2023 00:48:00   0.175     
SCS_Type_I_10mm  05/15/2023 00:54:00   0.175     
SCS_Type_I_10mm  05/15/2023 01:00:00   0.175     
SCS_Type_I_10mm  05/15/2023 01:06:00   0.175     
SCS_Type_I_10mm  05/15/2023 01:12:00   0.175     
SCS_Type_I_10mm  05/15/2023 01:18:00   0.176     
SCS_Type_I_10mm  05/15/2023 01:24:00   0.175     
SCS_Type_I_10mm  05/15/2023 01:30:00   0.176     
SCS_Type_I_10mm  05/15/2023 01:36:00   0.175     
SCS_Type_I_10mm  05/15/2023 01:42:00   0.176     
SCS_Type_I_10mm  05/15/2023 01:48:00   0.176     
SCS_Type_I_10mm  05/15/2023 01:54:00   0.176     
SCS_Type_I_10mm  05/15/2023 02:00:00   0.177     
SCS_Type_I_10mm  05/15/2023 02:06:00   0.181     
SCS_Type_I_10mm  05/15/2023 02:12:00   0.183     
SCS_Type_I_10mm  05/15/2023 02:18:00   0.186     
SCS_Type_I_10mm  05/15/2023 02:24:00   0.189     
SCS_Type_I_10mm  05/15/2023 02:30:00   0.192     
SCS_Type_I_10mm  05/15/2023 02:36:00   0.195     
SCS_Type_I_10mm  05/15/2023 02:42:00   0.198     
SCS_Type_I_10mm  05/15/2023 02:48:00   0.2       
SCS_Type_I_10mm  05/15/2023 02:54:00   0.204     
SCS_Type_I_10mm  05/15/2023 03:00:00   0.206     
SCS_Type_I_10mm  05/15/2023 03:06:00   0.21      
SCS_Type_I_10mm  05/15/2023 03:12:00   0.212     
SCS_Type_I_10mm  05/15/2023 03:18:00   0.215     
SCS_Type_I_10mm  05/15/2023 03:24:00   0.218     
SCS_Type_I_10mm  05/15/2023 03:30:00   0.221     
SCS_Type_I_10mm  05/15/2023 03:36:00   0.224     
SCS_Type_I_10mm  05/15/2023 03:42:00   0.227     
SCS_Type_I_10mm  05/15/2023 03:48:00   0.229     
SCS_Type_I_10mm  05/15/2023 03:54:00   0.233     
SCS_Type_I_10mm  05/15/2023 04:00:00   0.235     
SCS_Type_I_10mm  05/15/2023 04:06:00   0.235     
SCS_Type_I_10mm  05/15/2023 04:12:00   0.237     
SCS_Type_I_10mm  05/15/2023 04:18:00   0.238     
SCS_Type_I_10mm  05/15/2023 04:24:00   0.239     
SCS_Type_I_10mm  05/15/2023 04:30:00   0.24      
SCS_Type_I_10mm  05/15/2023 04:36:00   0.241     
SCS_Type_I_10mm  05/15/2023 04:42:00   0.242     
SCS_Type_I_10mm  05/15/2023 04:48:00   0.244     
SCS_Type_I_10mm  05/15/2023 04:54:00   0.244     
SCS_Type_I_10mm  05/15/2023 05:00:00   0.246     