[TITLE]
;;Project Title/Notes

[OPTIONS]
;;Option             Value
FLOW_UNITS           CMS
INFILTRATION         HORTON
FLOW_ROUTING         DYNWAVE
LINK_OFFSETS         DEPTH
MIN_SLOPE            0
ALLOW_PONDING        NO
SKIP_STEADY_STATE    NO

START_DATE           05/15/2023
START_TIME           00:00:00
REPORT_START_DATE    05/15/2023
REPORT_START_TIME    00:00:00
END_DATE             05/16/2023
END_TIME             23:48:00
SWEEP_START          01/01
SWEEP_END            12/31
DRY_DAYS             0
REPORT_STEP          00:01:00
WET_STEP             00:05:00
DRY_STEP             00:05:00
ROUTING_STEP         5
RULE_STEP            00:00:00

INERTIAL_DAMPING     PARTIAL
NORMAL_FLOW_LIMITED  BOTH
FORCE_MAIN_EQUATION  H-W
VARIABLE_STEP        0.75
LENGTHENING_STEP     0
MIN_SURFAREA         0
MAX_TRIALS           8
HEAD_TOLERANCE       0.0015
SYS_FLOW_TOL         5
LAT_FLOW_TOL         5
MINIMUM_STEP         0.5
THREADS              4

[EVAPORATION]
;;Data Source    Parameters
;;-------------- ----------------
CONSTANT         0.0
DRY_ONLY         NO

[RAINGAGES]
;;Name           Format    Interval SCF      Source    
;;-------------- --------- -------- -------- ----------
Hurricane_Hazel_(0-25) INTENSITY 01:00    1.0      TIMESERIES Hurricane_Hazel_(0-25)
SCS_Type_I_10mm  INTENSITY 0:06     1.0      TIMESERIES SCS_Type_I_10mm 
SCS_Type_I_6mm   INTENSITY 0:06     1.0      TIMESERIES SCS_Type_I_6mm  

[SUBCATCHMENTS]
;;Name           Rain Gage        Outlet           Area     %Imperv  Width    %Slope   CurbLen  SnowPack        
;;-------------- ---------------- ---------------- -------- -------- -------- -------- -------- ----------------
S1               SCS_Type_I_6mm   J1_2             277      25       498.212  0.5      0                        
S10              SCS_Type_I_6mm   J2_7             20       25       192.469  0.5      0                        
S11              SCS_Type_I_6mm   J2_1             38.2268  25       500      0.5      0                        
S12              SCS_Type_I_6mm   J2_2             42.2327  25       500      0.5      0                        
S13              SCS_Type_I_6mm   J2_3             37.0114  25       500      0.5      0                        
S14              SCS_Type_I_6mm   J2_8             29.77    25       500      0.5      0                        
S15              SCS_Type_I_6mm   J2_5             36.5149  25       500      0.5      0                        
S16              SCS_Type_I_6mm   J2_5             38.4151  25       500      0.5      0                        
S17              SCS_Type_I_6mm   J2_7             53.6169  25       500      0.5      0                        
S18              SCS_Type_I_6mm   J2_9             48.3442  25       500      0.5      0                        
S19              SCS_Type_I_6mm   J2_9             30       25       324.405  0.5      0                        
S2               SCS_Type_I_6mm   J1_1             324.6006 25       500      0.5      0                        
S20              SCS_Type_I_6mm   J2_9             46.4269  25       500      0.5      0                        
S21              SCS_Type_I_6mm   J2_10            20       25       171.002  0.5      0                        
S22              SCS_Type_I_6mm   J2_12            40       25       295.172  0.5      0                        
S23              SCS_Type_I_6mm   J2_14            99.5987  25       500.001  0.5      0                        
S24              SCS_Type_I_6mm   J2_15            138.3219 25       500      0.5      0                        
S25              SCS_Type_I_6mm   J2_13            50       25       156.473  0.5      0                        
S26              SCS_Type_I_6mm   J2_11            30       25       158.048  0.5      0                        
S27              SCS_Type_I_6mm   J2_16            35.8644  25       500      0.5      0                        
S28              SCS_Type_I_6mm   J2_16            15       25       198.96   0.5      0                        
S29              SCS_Type_I_6mm   J2_10            40       25       324.345  0.5      0                        
S3               SCS_Type_I_6mm   J1_3             82.6649  25       500      0.5      0                        
S30              SCS_Type_I_6mm   J1_1             421.4958 25       500      0.5      0                        
S31              SCS_Type_I_6mm   J3_1             137.7247 25       500      0.5      0                        
S32              SCS_Type_I_6mm   J3_3             62.1564  25       500      0.5      0                        
S33              SCS_Type_I_6mm   J3_1             112.6121 25       500      0.5      0                        
S34              SCS_Type_I_6mm   J3_2             67.8907  25       500      0.5      0                        
S35              SCS_Type_I_6mm   J3_3             79.7199  25       500      0.5      0                        
S4               SCS_Type_I_6mm   J1_2             116.4272 25       500      0.5      0                        
S5               SCS_Type_I_6mm   J2_1             46.7008  25       500      0.5      0                        
S6               SCS_Type_I_6mm   J2_2             45.5367  25       500      0.5      0                        
S7               SCS_Type_I_6mm   J2_3             20       25       193.875  0.5      0                        
S8               SCS_Type_I_6mm   J2_4             53.6853  25       500      0.5      0                        
S9               SCS_Type_I_6mm   J2_5             69.2123  25       500      0.5      0                        

[SUBAREAS]
;;Subcatchment   N-Imperv   N-Perv     S-Imperv   S-Perv     PctZero    RouteTo    PctRouted 
;;-------------- ---------- ---------- ---------- ---------- ---------- ---------- ----------
S1               0.01       0.1        0.05       0.05       25         OUTLET    
S10              0.01       0.1        0.05       0.05       25         OUTLET    
S11              0.01       0.1        0.05       0.05       25         OUTLET    
S12              0.01       0.1        0.05       0.05       25         OUTLET    
S13              0.01       0.1        0.05       0.05       25         OUTLET    
S14              0.01       0.1        0.05       0.05       25         OUTLET    
S15              0.01       0.1        0.05       0.05       25         OUTLET    
S16              0.01       0.1        0.05       0.05       25         OUTLET    
S17              0.01       0.1        0.05       0.05       25         OUTLET    
S18              0.01       0.1        0.05       0.05       25         OUTLET    
S19              0.01       0.1        0.05       0.05       25         OUTLET    
S2               0.01       0.1        0.05       0.05       25         OUTLET    
S20              0.01       0.1        0.05       0.05       25         OUTLET    
S21              0.01       0.1        0.05       0.05       25         OUTLET    
S22              0.01       0.1        0.05       0.05       25         OUTLET    
S23              0.01       0.1        0.05       0.05       25         OUTLET    
S24              0.01       0.1        0.05       0.05       25         OUTLET    
S25              0.01       0.1        0.05       0.05       25         OUTLET    
S26              0.01       0.1        0.05       0.05       25         OUTLET    
S27              0.01       0.1        0.05       0.05       25         OUTLET    
S28              0.01       0.1        0.05       0.05       25         OUTLET    
S29              0.01       0.1        0.05       0.05       25         OUTLET    
S3               0.01       0.1        0.05       0.05       25         OUTLET    
S30              0.01       0.1        0.05       0.05       25         OUTLET    
S31              0.01       0.1        0.05       0.05       25         OUTLET    
S32              0.01       0.1        0.05       0.05       25         OUTLET    
S33              0.01       0.1        0.05       0.05       25         OUTLET    
S34              0.01       0.1        0.05       0.05       25         OUTLET    
S35              0.01       0.1        0.05       0.05       25         OUTLET    
S4               0.01       0.1        0.05       0.05       25         OUTLET    
S5               0.01       0.1        0.05       0.05       25         OUTLET    
S6               0.01       0.1        0.05       0.05       25         OUTLET    
S7               0.01       0.1        0.05       0.05       25         OUTLET    
S8               0.01       0.1        0.05       0.05       25         OUTLET    
S9               0.01       0.1        0.05       0.05       25         OUTLET    

[INFILTRATION]
;;Subcatchment   Param1     Param2     Param3     Param4     Param5    
;;-------------- ---------- ---------- ---------- ---------- ----------
S1               3          0.5        4          7          0         
S10              3          0.5        4          7          0         
S11              3          0.5        4          7          0         
S12              3          0.5        4          7          0         
S13              3          0.5        4          7          0         
S14              3          0.5        4          7          0         
S15              3          0.5        4          7          0         
S16              3          0.5        4          7          0         
S17              3          0.5        4          7          0         
S18              3          0.5        4          7          0         
S19              3          0.5        4          7          0         
S2               3          0.5        4          7          0         
S20              3          0.5        4          7          0         
S21              3          0.5        4          7          0         
S22              3          0.5        4          7          0         
S23              3          0.5        4          7          0         
S24              3          0.5        4          7          0         
S25              3          0.5        4          7          0         
S26              3          0.5        4          7          0         
S27              3          0.5        4          7          0         
S28              3          0.5        4          7          0         
S29              3          0.5        4          7          0         
S3               3          0.5        4          7          0         
S30              3          0.5        4          7          0         
S31              3          0.5        4          7          0         
S32              3          0.5        4          7          0         
S33              3          0.5        4          7          0         
S34              3          0.5        4          7          0         
S35              3          0.5        4          7          0         
S4               3          0.5        4          7          0         
S5               3          0.5        4          7          0         
S6               3          0.5        4          7          0         
S7               3          0.5        4          7          0         
S8               3          0.5        4          7          0         
S9               3          0.5        4          7          0         

[JUNCTIONS]
;;Name           Elevation  MaxDepth   InitDepth  SurDepth   Aponded   
;;-------------- ---------- ---------- ---------- ---------- ----------
J1_1             10.48      0          0          0          0         
J1_2             10.32      0          0          0          0         
J1_3             10.16      0          0          0          0         
J2_1             11.92      0          0          0          0         
J2_10            10.96      0          0          0          0         
J2_11            11.12      0          0          0          0         
J2_12            11.28      0          0          0          0         
J2_13            11.44      0          0          0          0         
J2_14            11.6       0          0          0          0         
J2_15            10.8       0          0          0          0         
J2_16            10.96      0          0          0          0         
J2_17            10.4       0          0          0          0         
J2_2             11.76      0          0          0          0         
J2_3             11.6       0          0          0          0         
J2_4             11.44      0          0          0          0         
J2_5             11.6       0          0          0          0         
J2_6             11.76      0          0          0          0         
J2_7             11.92      0          0          0          0         
J2_8             11.28      0          0          0          0         
J2_9             11.12      0          0          0          0         
J3_1             10.32      0          0          0          0         
J3_2             10.32      0          0          0          0         
J3_3             10.16      0          0          0          0         
JI_1             4.8        0          0          0          0         
JI_2             3.2        0          0          0          0         
JI_3             1.6        0          0          0          0         
SU1              10         0          0          0          0         
SU2              10         50         0          0          0         
SU3              10         50         0          0          0         
WWTP             0          50         0          0          0         

[OUTFALLS]
;;Name           Elevation  Type       Stage Data       Gated    Route To        
;;-------------- ---------- ---------- ---------------- -------- ----------------
OF_WWTP          0          FREE                        NO                       
OF1              0          FREE                        NO                       
OF2              0          FREE                        NO                       
OF3              0          FREE                        NO                       

[CONDUITS]
;;Name           From Node        To Node          Length     Roughness  InOffset   OutOffset  InitFlow   MaxFlow   
;;-------------- ---------------- ---------------- ---------- ---------- ---------- ---------- ---------- ----------
C1_1             J1_1             J1_2             200        0.013      0          0          0          0         
C1_2             J1_2             J1_3             200        0.013      0          0          0          0         
C1_3             J1_3             SU1              200        0.013      0          0          0          0         
C2_1             J2_1             J2_2             200        0.013      0          0          0          0         
C2_10            J2_14            J2_13            200        0.013      0          0          0          0         
C2_11            J2_13            J2_12            200        0.013      0          0          0          0         
C2_12            J2_12            J2_11            200        0.013      0          0          0          0         
C2_13            J2_11            J2_10            200        0.013      0          0          0          0         
C2_14            J2_10            J2_15            200        0.013      0          0          0          0         
C2_15            J2_16            J2_15            200        0.013      0          0          0          0         
C2_16            J2_15            J2_17            500        0.013      0          0          0          0         
C2_17            J2_17            SU2              500        0.013      0          0          0          0         
C2_2             J2_2             J2_3             200        0.013      0          0          0          0         
C2_3             J2_3             J2_4             200        0.013      0          0          0          0         
C2_4             J2_5             J2_4             200        0.013      0          0          0          0         
C2_5             J2_6             J2_5             200        0.013      0          0          0          0         
C2_6             J2_7             J2_6             200        0.013      0          0          0          0         
C2_7             J2_4             J2_8             200        0.013      0          0          0          0         
C2_8             J2_8             J2_9             200        0.013      0          0          0          0         
C2_9             J2_9             J2_10            200        0.013      0          0          0          0         
C3_1             J3_3             SU3              200        0.013      0          0          0          0         
C3_2             J3_2             J3_3             200        0.013      0          0          0          0         
C3_3             J3_1             J3_3             200        0.013      0          0          0          0         
CI_1             JI_1             JI_2             2000       0.013      0          0          0          0         
CI_2             JI_2             JI_3             2000       0.013      0          0          0          0         
CI_3             JI_3             WWTP             2000       0.013      0          0          0          0         

[ORIFICES]
;;Name           From Node        To Node          Type         Offset     Qcoeff     Gated    CloseTime 
;;-------------- ---------------- ---------------- ------------ ---------- ---------- -------- ----------
CSO1             SU1              OF1              SIDE         0.5        0.65       NO       0         
CSO2             SU2              OF2              SIDE         0.7        0.65       NO       0         
CSO3             SU3              OF3              SIDE         0.5        0.65       NO       0         
OR_WWTP          WWTP             OF_WWTP          SIDE         0          0.65       NO       0         
OR1              SU1              JI_1             SIDE         0          0.65       NO       0         
OR2              SU2              JI_2             SIDE         0          0.65       NO       0         
OR3              SU3              JI_3             SIDE         0          0.65       NO       0         

[XSECTIONS]
;;Link           Shape        Geom1            Geom2      Geom3      Geom4      Barrels    Culvert   
;;-------------- ------------ ---------------- ---------- ---------- ---------- ---------- ----------
C1_1             CIRCULAR     1                0          0          0          1                    
C1_2             CIRCULAR     1                0          0          0          1                    
C1_3             CIRCULAR     1                0          0          0          1                    
C2_1             CIRCULAR     1                0          0          0          1                    
C2_10            CIRCULAR     1                0          0          0          1                    
C2_11            CIRCULAR     1                0          0          0          1                    
C2_12            CIRCULAR     1                0          0          0          1                    
C2_13            CIRCULAR     1                0          0          0          1                    
C2_14            CIRCULAR     1                0          0          0          1                    
C2_15            CIRCULAR     1                0          0          0          1                    
C2_16            CIRCULAR     1.5              0          0          0          1                    
C2_17            CIRCULAR     1.5              0          0          0          1                    
C2_2             CIRCULAR     1                0          0          0          1                    
C2_3             CIRCULAR     1                0          0          0          1                    
C2_4             CIRCULAR     1                0          0          0          1                    
C2_5             CIRCULAR     1                0          0          0          1                    
C2_6             CIRCULAR     1                0          0          0          1                    
C2_7             CIRCULAR     1                0          0          0          1                    
C2_8             CIRCULAR     1                0          0          0          1                    
C2_9             CIRCULAR     1                0          0          0          1                    
C3_1             CIRCULAR     1                0          0          0          1                    
C3_2             CIRCULAR     1                0          0          0          1                    
C3_3             CIRCULAR     1                0          0          0          1                    
CI_1             CIRCULAR     1.5              0          0          0          1                    
CI_2             CIRCULAR     1.5              0          0          0          1                    
CI_3             CIRCULAR     1.5              0          0          0          1                    
CSO1             RECT_CLOSED  0.4              0.4        0          0
CSO2             RECT_CLOSED  0.4              0.4        0          0
CSO3             RECT_CLOSED  0.4              0.4        0          0
OR_WWTP          RECT_CLOSED  0.7              0.7        0          0
OR1              RECT_CLOSED  0.4              0.4        0          0
OR2              RECT_CLOSED  0.6              0.6        0          0
OR3              RECT_CLOSED  0.4              0.4        0          0

[LOSSES]
;;Link           Kentry     Kexit      Kavg       Flap Gate  Seepage   
;;-------------- ---------- ---------- ---------- ---------- ----------

[TIMESERIES]
;;Name           Date       Time       Value     
;;-------------- ---------- ---------- ----------
;Rainfall (mm/hr)
Hurricane_Hazel_(0-25) 05/15/2023 00:00:00   6.33      
Hurricane_Hazel_(0-25) 05/15/2023 01:00:00   4.22      
Hurricane_Hazel_(0-25) 05/15/2023 02:00:00   6.33      
Hurricane_Hazel_(0-25) 05/15/2023 03:00:00   12.66     
Hurricane_Hazel_(0-25) 05/15/2023 04:00:00   16.88     
Hurricane_Hazel_(0-25) 05/15/2023 05:00:00   12.66     
Hurricane_Hazel_(0-25) 05/15/2023 06:00:00   23.21     
Hurricane_Hazel_(0-25) 05/15/2023 07:00:00   12.66     
Hurricane_Hazel_(0-25) 05/15/2023 08:00:00   12.66     
Hurricane_Hazel_(0-25) 05/15/2023 09:00:00   52.75     
Hurricane_Hazel_(0-25) 05/15/2023 10:00:00   37.98     
Hurricane_Hazel_(0-25) 05/15/2023 11:00:00   12.66     

;Rainfall (mm/hr)
SCS_Type_I_10mm  05/15/2023 00:00:00   0.174     
SCS_Type_I_10mm  05/15/2023 00:06:00   0.174     
SCS_Type_I_10mm  05/15/2023 00:12:00   0.174     
SCS_Type_I_10mm  05/15/2023 00:18:00   0.175     
SCS_Type_I_10mm  05/15/2023 00:24:00   0.174     
SCS_Type_I_10mm  05/15/2023 00:30:00   0.175     
SCS_Type_I_10mm  05/15/2023 00:36:00   0.174     
SCS_Type_I_10mm  05/15/2023 00:42:00   0.175     
SCS_Type_I_10mm  05/15/2023 00:48:00   0.175     
SCS_Type_I_10mm  05/15/2023 00:54:00   0.175     
SCS_Type_I_10mm  05/15/2023 01:00:00   0.175     
SCS_Type_I_10mm  05/15/2023 01:06:00   0.175     
SCS_Type_I_10mm  05/15/2023 01:12:00   0.175     
SCS_Type_I_10mm  05/15/2023 01:18:00   0.176     
SCS_Type_I_10mm  05/15/2023 01:24:00   0.175     
SCS_Type_I_10mm  05/15/2023 01:30:00   0.176     
SCS_Type_I_10mm  05/15/2023 01:36:00   0.175     
SCS_Type_I_10mm  05/15/2023 01:42:00   0.176     
SCS_Type_I_10mm  05/15/2023 01:48:00   0.176     
SCS_Type_I_10mm  05/15/2023 01:54:00   0.176     
SCS_Type_I_10mm  05/15/2023 02:00:00   0.177     
SCS_Type_I_10mm  05/15/2023 02:06:00   0.181     
SCS_Type_I_10mm  05/15/2023 02:12:00   0.183     
SCS_Type_I_10mm  05/15/2023 02:18:00   0.186     
SCS_Type_I_10mm  05/15/2023 02:24:00   0.189     
SCS_Type_I_10mm  05/15/2023 02:30:00   0.192     
SCS_Type_I_10mm  05/15/2023 02:36:00   0.195     
SCS_Type_I_10mm  05/15/2023 02:42:00   0.198     
SCS_Type_I_10mm  05/15/2023 02:48:00   0.2       
SCS_Type_I_10mm  05/15/2023 02:54:00   0.204     
SCS_Type_I_10mm  05/15/2023 03:00:00   0.206     
SCS_Type_I_10mm  05/15/2023 03:06:00   0.21      
SCS_Type_I_10mm  05/15/2023 03:12:00   0.212     
SCS_Type_I_10mm  05/15/2023 03:18:00   0.215     
SCS_Type_I_10mm  05/15/2023 03:24:00   0.218     
SCS_Type_I_10mm  05/15/2023 03:30:00   0.221     
SCS_Type_I_10mm  05/15/2023 03:36:00   0.224     
SCS_Type_I_10mm  05/15/2023 03:42:00   0.227     
SCS_Type_I_10mm  05/15/2023 03:48:00   0.229     
SCS_Type_I_10mm  05/15/2023 03:54:00   0.233     
SCS_Type_I_10mm  05/15/2023 04:00:00   0.235     
SCS_Type_I_10mm  05/15/2023 04:06:00   0.235     
SCS_Type_I_10mm  05/15/2023 04:12:00   0.237     
SCS_Type_I_10mm  05/15/2023 04:18:00   0.238     
SCS_Type_I_10mm  05/15/2023 04:24:00   0.239     
SCS_Type_I_10mm  05/15/2023 04:30:00   0.24      
SCS_Type_I_10mm  05/15/2023 04:36:00   0.241     
SCS_Type_I_10mm  05/15/2023 04:42:00   0.242     
SCS_Type_I_10mm  05/15/2023 04:48:00   0.244     
SCS_Type_I_10mm  05/15/2023 04:54:00   0.244     
SCS_Type_I_10mm  05/15/2023 05:00:00   0.246     
SCS_Type_I_10mm  05/15/2023 05:06:00   0.246     
SCS_Type_I_10mm  05/15/2023 05:12:00   0.248     
SCS_Type_I_10mm  05/15/2023 05:18:00   0.249     
SCS_Type_I_10mm  05/15/2023 05:24:00   0.25      
SCS_Type_I_10mm  05/15/2023 05:30:00   0.251     
SCS_Type_I_10mm  05/15/2023 05:36:00   0.252     
SCS_Type_I_10mm  05/15/2023 05:42:00   0.253     
SCS_Type_I_10mm  05/15/2023 05:48:00   0.255     
SCS_Type_I_10mm  05/15/2023 05:54:00   0.255     
SCS_Type_I_10mm  05/15/2023 06:00:00   0.261     
SCS_Type_I_10mm  05/15/2023 06:06:00   0.273     
SCS_Type_I_10mm  05/15/2023 06:12:00   0.283     
SCS_Type_I_10mm  05/15/2023 06:18:00   0.293     
SCS_Type_I_10mm  05/15/2023 06:24:00   0.305     
SCS_Type_I_10mm  05/15/2023 06:30:00   0.315     
SCS_Type_I_10mm  05/15/2023 06:36:00   0.327     
SCS_Type_I_10mm  05/15/2023 06:42:00   0.337     
SCS_Type_I_10mm  05/15/2023 06:48:00   0.347     
SCS_Type_I_10mm  05/15/2023 06:54:00   0.359     
SCS_Type_I_10mm  05/15/2023 07:00:00   0.366     
SCS_Type_I_10mm  05/15/2023 07:06:00   0.368     
SCS_Type_I_10mm  05/15/2023 07:12:00   0.372     
SCS_Type_I_10mm  05/15/2023 07:18:00   0.376     
SCS_Type_I_10mm  05/15/2023 07:24:00   0.378     
SCS_Type_I_10mm  05/15/2023 07:30:00   0.382     
SCS_Type_I_10mm  05/15/2023 07:36:00   0.384     
SCS_Type_I_10mm  05/15/2023 07:42:00   0.388     
SCS_Type_I_10mm  05/15/2023 07:48:00   0.392     
SCS_Type_I_10mm  05/15/2023 07:54:00   0.394     
SCS_Type_I_10mm  05/15/2023 08:00:00   0.417     
SCS_Type_I_10mm  05/15/2023 08:06:00   0.458     
SCS_Type_I_10mm  05/15/2023 08:12:00   0.5       
SCS_Type_I_10mm  05/15/2023 08:18:00   0.542     
SCS_Type_I_10mm  05/15/2023 08:24:00   0.583     
SCS_Type_I_10mm  05/15/2023 08:30:00   0.623     
SCS_Type_I_10mm  05/15/2023 08:36:00   0.662     
SCS_Type_I_10mm  05/15/2023 08:42:00   0.7       
SCS_Type_I_10mm  05/15/2023 08:48:00   0.738     
SCS_Type_I_10mm  05/15/2023 08:54:00   0.777     
SCS_Type_I_10mm  05/15/2023 09:00:00   0.833     
SCS_Type_I_10mm  05/15/2023 09:06:00   0.906     
SCS_Type_I_10mm  05/15/2023 09:12:00   0.98      
SCS_Type_I_10mm  05/15/2023 09:18:00   1.054     
SCS_Type_I_10mm  05/15/2023 09:24:00   1.127     
SCS_Type_I_10mm  05/15/2023 09:30:00   1.642     
SCS_Type_I_10mm  05/15/2023 09:36:00   2.6       
SCS_Type_I_10mm  05/15/2023 09:42:00   4.242     
SCS_Type_I_10mm  05/15/2023 09:48:00   7.532     
SCS_Type_I_10mm  05/15/2023 09:54:00   5.184     
SCS_Type_I_10mm  05/15/2023 10:00:00   1.72      
SCS_Type_I_10mm  05/15/2023 10:06:00   1.54      
SCS_Type_I_10mm  05/15/2023 10:12:00   1.36      
SCS_Type_I_10mm  05/15/2023 10:18:00   1.18      
SCS_Type_I_10mm  05/15/2023 10:24:00   1         
SCS_Type_I_10mm  05/15/2023 10:30:00   0.888     
SCS_Type_I_10mm  05/15/2023 10:36:00   0.844     
SCS_Type_I_10mm  05/15/2023 10:42:00   0.8       
SCS_Type_I_10mm  05/15/2023 10:48:00   0.756     
SCS_Type_I_10mm  05/15/2023 10:54:00   0.712     
SCS_Type_I_10mm  05/15/2023 11:00:00   0.682     
SCS_Type_I_10mm  05/15/2023 11:06:00   0.666     
SCS_Type_I_10mm  05/15/2023 11:12:00   0.65      
SCS_Type_I_10mm  05/15/2023 11:18:00   0.634     
SCS_Type_I_10mm  05/15/2023 11:24:00   0.618     
SCS_Type_I_10mm  05/15/2023 11:30:00   0.602     
SCS_Type_I_10mm  05/15/2023 11:36:00   0.586     
SCS_Type_I_10mm  05/15/2023 11:42:00   0.57      
SCS_Type_I_10mm  05/15/2023 11:48:00   0.554     
SCS_Type_I_10mm  05/15/2023 11:54:00   0.538     
SCS_Type_I_10mm  05/15/2023 12:00:00   0.525     
SCS_Type_I_10mm  05/15/2023 12:06:00   0.515     
SCS_Type_I_10mm  05/15/2023 12:12:00   0.505     
SCS_Type_I_10mm  05/15/2023 12:18:00   0.495     
SCS_Type_I_10mm  05/15/2023 12:24:00   0.485     
SCS_Type_I_10mm  05/15/2023 12:30:00   0.475     
SCS_Type_I_10mm  05/15/2023 12:36:00   0.465     
SCS_Type_I_10mm  05/15/2023 12:42:00   0.455     
SCS_Type_I_10mm  05/15/2023 12:48:00   0.445     
SCS_Type_I_10mm  05/15/2023 12:54:00   0.435     
SCS_Type_I_10mm  05/15/2023 13:00:00   0.425     
SCS_Type_I_10mm  05/15/2023 13:06:00   0.415     
SCS_Type_I_10mm  05/15/2023 13:12:00   0.405     
SCS_Type_I_10mm  05/15/2023 13:18:00   0.395     
SCS_Type_I_10mm  05/15/2023 13:24:00   0.385     
SCS_Type_I_10mm  05/15/2023 13:30:00   0.375     
SCS_Type_I_10mm  05/15/2023 13:36:00   0.365     
SCS_Type_I_10mm  05/15/2023 13:42:00   0.355     
SCS_Type_I_10mm  05/15/2023 13:48:00   0.345     
SCS_Type_I_10mm  05/15/2023 13:54:00   0.335     
SCS_Type_I_10mm  05/15/2023 14:00:00   0.329     
SCS_Type_I_10mm  05/15/2023 14:06:00   0.327     
SCS_Type_I_10mm  05/15/2023 14:12:00   0.325     